1   'GENSAL'   1   8.96   0.04   0.06   23.64   0.0   0.146   0.0969   0.0608   0.04   0.0336   0.0   0.0   /
2   'GENROU'   1   6.0   0.033   0.54   0.078   6.4   0.0   0.8958   0.8645   0.1189   0.1969   0.089   0.0521   0.0   0.0   /
3   'GENROU'   1   5.89   0.033   0.6   0.07   3.01   0.0   1.313   1.258   0.1813   0.25   0.107   0.0742   0.0   0.0   /