      1 'GENSAL' 1     8.9600      0.40000E-01  0.60000E-01   23.640
          0.0000      0.14600      0.96900E-01  0.60800E-01  0.40000E-01
         0.33600E-01   0.0000       0.0000    /
      1 'IEEET1' 1    0.60000E-01   20.000      0.20000       5.00
          -5.0000       1.0000      0.31400      0.63000E-01  0.35000
          0.0000       3.0000      0.10400       4.0000      0.29300    /
      1 'IEEEG3' 1    0.40000E-01   1.0000       18.000      -18.000
          180.00       0.0000      0.50000E-01  0.31000       5.0000
          1.0000      0.50000       1.0000       1.5000       1.0000    /
      2 'GENROU' 1     6.0000      0.33000E-01  0.54000      0.78000E-01
          6.4000       0.0000      0.89580      0.86450      0.11890
         0.19690      0.89000E-01  0.52100E-01   0.0000       0.0000    /
      2 'IEEET1' 1    0.60000E-01   20.000      0.20000       5.00
          -5.0000       1.0000      0.31400      0.63000E-01  0.35000
          0.0000       3.0000      0.10400       4.0000      0.29300    /
      2 'IEEEG1' 1          0           0        20.833       0.0000
          0.0000      0.10000      0.20000     -0.62500       1.9200
          0.0000      0.25000      0.26000       0.0000       7.5000
         0.27000       0.0000      0.40000      0.47000       0.0000
          0.0000       0.0000       0.0000    /      
      3 'GENROU' 1     5.8900      0.33000E-01  0.60000      0.70000E-01
          3.0100       0.0000       1.3130       1.2580      0.18130
         0.25000      0.10700      0.74200E-01   0.0000       0.0000    /
      3 'IEEET1' 1    0.60000E-01   20.000      0.20000       5.00
          -5.0000       1.0000      0.31400      0.63000E-01  0.35000
          0.0000       3.0000      0.10400       4.0000      0.29300    /
      3 'IEEEG1' 1          0           0        25.000      0.10000
          0.0000      0.20000      0.10000      -1.0000      1.28
          0.0000      0.25000      0.40000       0.0000      0.50000
         0.60000       0.0000       0.0000       0.0000       0.0000
          0.0000       0.0000       0.0000    /
